   24
** Geometry step: 10, Lattice step: 3
   Ce      0.00106853      0.00106853      0.00000000      2.55414453
   Ce      2.75432142      2.75432142     -0.00000000      2.55414358
   Ce     -0.00019580      2.75401245      2.75407574      2.55414355
   Ce      2.75401264      5.50733830      2.75345818      2.55414355
   Ce      2.75401245     -0.00019580      2.75407574      2.55414355
   Ce      5.50733830      2.75401264      2.75345818      2.55414355
   Ce      2.75370367      2.75370367      5.50753391      2.55414357
   Ce      5.50756360      5.50756360      5.50753391      2.55414294
    O      1.37722763      1.37722763      1.37705498      6.72294308
    O      4.13099750      4.13099750      1.37670949      6.72291305
    O      1.37705677      4.13082269      4.13064999      6.72292816
    O      4.13064135      6.88440970      4.13065048      6.72292829
    O      4.13082269      1.37705677      4.13064999      6.72292816
    O      6.88440970      4.13064135      4.13065048      6.72292829
    O      4.13065429      4.13065429      6.88440560      6.72291375
    O      6.88442129      6.88442129      6.88443031      6.72294282
    O      4.13065438      4.13065438      4.13066223      6.72291375
    O      6.88442139      6.88442139      4.13063752      6.72294282
    O      4.13064126      6.88440961      6.88441735      6.72292829
    O      6.88459097      9.63835689      6.88441784      6.72292816
    O      6.88440961      4.13064126      6.88441735      6.72292829
    O      9.63835689      6.88459097      6.88441784      6.72292816
    O      6.88476164      6.88476164      9.63801285      6.72294308
    O      9.63853151      9.63853151      9.63835834      6.72291305
