   24
** Geometry step: 0, Lattice step: 0
   Ce      0.00374185      0.00374185     -0.00000000      2.55407535
   Ce      2.75396212      2.75396212     -0.00000000      2.55406727
   Ce      0.00000000      2.75396212      2.75396212      2.55406692
   Ce      2.75396212      5.50792425      2.75396212      2.55406692
   Ce      2.75396212     -0.00000000      2.75396212      2.55406692
   Ce      5.50792425      2.75396212      2.75396212      2.55406692
   Ce      2.75396212      2.75396212      5.50792425      2.55406758
   Ce      5.50792425      5.50792425      5.50792425      2.55406648
    O      1.37698106      1.37698106      1.37698106      6.72261982
    O      4.13094319      4.13094319      1.37698106      6.72330909
    O      1.37698106      4.13094319      4.13094319      6.72296561
    O      4.13094319      6.88490531      4.13094319      6.72296704
    O      4.13094319      1.37698106      4.13094319      6.72296561
    O      6.88490531      4.13094319      4.13094319      6.72296704
    O      4.13094319      4.13094319      6.88490531      6.72302433
    O      6.88490531      6.88490531      6.88490531      6.72290929
    O      4.13094319      4.13094319      4.13094319      6.72302433
    O      6.88490531      6.88490531      4.13094319      6.72290929
    O      4.13094319      6.88490531      6.88490531      6.72296704
    O      6.88490531      9.63886743      6.88490531      6.72296561
    O      6.88490531      4.13094319      6.88490531      6.72296704
    O      9.63886743      6.88490531      6.88490531      6.72296561
    O      6.88490531      6.88490531      9.63886743      6.72261982
    O      9.63886743      9.63886743      9.63886743      6.72330909
